Version 4
SHEET 1 880 884
WIRE -176 0 -432 0
WIRE 432 0 -176 0
WIRE 704 32 672 32
WIRE 432 64 384 64
WIRE -304 144 -432 144
WIRE 96 144 -304 144
WIRE 224 144 160 144
WIRE 384 160 384 64
WIRE 384 160 320 160
WIRE 224 176 176 176
WIRE 96 192 96 160
WIRE -352 256 -432 256
WIRE 176 256 176 176
WIRE 176 256 -352 256
WIRE -176 336 -176 0
WIRE -64 336 -176 336
WIRE 224 368 176 368
WIRE 704 368 224 368
WIRE -304 400 -304 144
WIRE -64 400 -304 400
WIRE 224 464 224 368
WIRE 384 464 224 464
WIRE -352 480 -352 256
WIRE 384 480 -352 480
WIRE 704 480 528 480
WIRE 384 496 -432 496
WIRE -272 832 -272 800
WIRE -160 832 -160 800
WIRE -160 832 -272 832
WIRE -32 832 -32 800
WIRE -32 832 -160 832
WIRE 80 832 80 800
WIRE 80 832 -32 832
WIRE 208 832 208 800
WIRE 208 832 80 832
WIRE -32 864 -32 832
FLAG 96 192 0
FLAG 288 112 Vdd
FLAG 704 32 Y0
FLAG 704 368 Y1
FLAG 704 480 V
FLAG -432 0 A3
FLAG -432 144 A2
FLAG -432 256 A1
FLAG -432 496 A0
FLAG -32 864 0
FLAG 80 720 A3
FLAG -32 720 A2
FLAG -160 720 A1
FLAG -272 720 A0
FLAG 208 720 Vdd
SYMBOL Digital\\inv 96 80 R0
SYMATTR InstName A1
SYMBOL OR 544 32 R0
SYMATTR InstName X1
SYMBOL AND 256 176 R0
SYMATTR InstName X2
SYMBOL OR 48 368 R0
SYMATTR InstName X3
SYMBOL OR3 432 480 R0
SYMATTR InstName X4
SYMBOL voltage -272 704 R0
WINDOW 123 0 0 Left 0
WINDOW 39 0 0 Left 0
SYMATTR InstName V1
SYMATTR Value 1.8
SYMBOL voltage -160 704 R0
WINDOW 123 0 0 Left 0
WINDOW 39 0 0 Left 0
SYMATTR InstName V2
SYMATTR Value 0
SYMBOL voltage -32 704 R0
WINDOW 123 0 0 Left 0
WINDOW 39 0 0 Left 0
SYMATTR InstName V3
SYMATTR Value 1.8
SYMBOL voltage 80 704 R0
WINDOW 123 0 0 Left 0
WINDOW 39 0 0 Left 0
SYMATTR InstName V4
SYMATTR Value 1
SYMBOL voltage 208 704 R0
WINDOW 123 0 0 Left 0
WINDOW 39 0 0 Left 0
SYMATTR InstName V5
SYMATTR Value 1.8
TEXT -512 712 Left 2 !.op
