Version 4
SHEET 1 880 680
WIRE 224 128 224 64
WIRE 128 176 -48 176
WIRE 432 192 336 192
WIRE 128 208 -48 208
WIRE 224 384 224 320
FLAG -48 176 A
FLAG -48 208 B
FLAG 224 384 Cin
FLAG 432 192 Sum
FLAG 224 64 Cout
FLAG -272 352 A
FLAG -176 352 B
FLAG -80 352 Cin
FLAG -80 432 0
FLAG -176 432 0
FLAG -272 432 0
SYMBOL Full_adder 224 224 R0
SYMATTR InstName X1
SYMBOL voltage -272 336 R0
WINDOW 123 0 0 Left 0
WINDOW 39 0 0 Left 0
SYMATTR InstName V1
SYMATTR Value 1.8
SYMBOL voltage -176 336 R0
WINDOW 123 0 0 Left 0
WINDOW 39 0 0 Left 0
SYMATTR InstName V2
SYMATTR Value 1.8
SYMBOL voltage -80 336 R0
WINDOW 123 0 0 Left 0
WINDOW 39 0 0 Left 0
SYMATTR InstName V3
SYMATTR Value 0
TEXT -306 470 Left 2 !.tran 20m
