Version 4
SHEET 1 880 692
WIRE 368 16 208 16
WIRE 368 32 224 32
WIRE 368 64 240 64
WIRE 368 80 256 80
WIRE 208 144 208 16
WIRE 208 144 192 144
WIRE 224 160 224 32
WIRE 224 160 192 160
WIRE 272 176 192 176
WIRE 240 192 240 64
WIRE 240 192 192 192
WIRE 224 208 192 208
WIRE 240 224 192 224
WIRE 256 240 256 80
WIRE 256 240 192 240
WIRE 272 272 272 176
WIRE 368 272 272 272
WIRE 224 288 224 208
WIRE 368 288 224 288
WIRE 240 320 240 224
WIRE 368 320 240 320
WIRE 256 336 256 240
WIRE 368 336 256 336
WIRE -240 464 -240 416
WIRE -176 464 -176 416
WIRE -112 464 -112 416
WIRE -16 464 -16 416
WIRE -240 592 -240 544
WIRE -176 592 -176 544
WIRE -176 592 -240 592
WIRE -128 592 -176 592
WIRE -112 592 -112 544
WIRE -112 592 -128 592
WIRE -16 592 -16 544
WIRE -16 592 -112 592
WIRE -128 608 -128 592
FLAG 96 96 Vdd
FLAG 448 -16 Vdd
FLAG 448 240 Vdd
FLAG -16 416 Vdd
FLAG 16 144 A
FLAG 16 176 B
FLAG 16 208 Cin
FLAG 560 304 Cout
FLAG 560 48 Sum
FLAG -112 416 A
FLAG -176 416 Cin
FLAG -240 416 B
FLAG -128 608 0
SYMBOL decoder3x8 96 176 R0
SYMATTR InstName X1
SYMBOL OR4 416 48 R0
SYMATTR InstName X2
SYMBOL OR4 416 304 R0
SYMATTR InstName X3
SYMBOL voltage -240 448 R0
WINDOW 3 -248 228 Left 2
WINDOW 123 0 0 Left 0
WINDOW 39 0 0 Left 0
SYMATTR InstName V1
SYMATTR Value PULSE(0 1.8 1u 10n 10n 1u 2u)
SYMBOL voltage -176 448 R0
WINDOW 3 -324 184 Left 2
WINDOW 123 0 0 Left 0
WINDOW 39 0 0 Left 0
SYMATTR InstName V2
SYMATTR Value PULSE(0 1.8 1u 10n 10n 0.5u 1u)
SYMBOL voltage -112 448 R0
WINDOW 3 -4 228 Left 2
WINDOW 123 0 0 Left 0
WINDOW 39 0 0 Left 0
SYMATTR InstName V3
SYMATTR Value PULSE(0 1.8 1u 10n 10n 2u 4u)
SYMBOL voltage -16 448 R0
WINDOW 123 0 0 Left 0
WINDOW 39 0 0 Left 0
SYMATTR InstName V4
SYMATTR Value 1.8
TEXT 176 464 Left 2 !.tran 8u
