Version 4
SHEET 1 1520 808
WIRE -64 128 -416 128
WIRE 144 128 -64 128
WIRE 432 160 304 160
WIRE 672 160 432 160
WIRE -368 192 -416 192
WIRE 144 192 -368 192
WIRE 1216 192 832 192
WIRE 384 224 -416 224
WIRE 672 224 384 224
WIRE -64 368 -64 128
WIRE 32 368 -64 368
WIRE 144 368 96 368
WIRE 432 368 432 160
WIRE 560 368 432 368
WIRE 672 368 624 368
WIRE 880 384 768 384
WIRE -368 400 -368 192
WIRE 144 400 -368 400
WIRE 384 400 384 224
WIRE 672 400 384 400
WIRE 1360 416 1120 416
WIRE 240 448 240 384
WIRE 880 448 240 448
WIRE 144 656 144 624
WIRE 288 656 288 624
WIRE 432 656 432 624
WIRE 576 656 576 624
WIRE 144 768 144 736
WIRE 288 768 288 736
WIRE 432 768 432 736
WIRE 576 768 576 736
FLAG -416 128 A1
FLAG -416 192 A2
FLAG -416 224 Borrow
FLAG 224 96 Vdd
FLAG 752 128 Vdd
FLAG 208 336 Vdd
FLAG 736 336 Vdd
FLAG 144 624 Vdd
FLAG 144 768 0
FLAG 288 768 0
FLAG 432 768 0
FLAG 576 768 0
FLAG 288 624 A1
FLAG 432 624 A2
FLAG 576 624 Borrow
FLAG 1216 192 Out
IOPIN 1216 192 Out
FLAG 1360 416 Borrow_Out
SYMBOL XOR 176 176 R0
SYMATTR InstName X1
SYMBOL XOR 704 208 R0
SYMATTR InstName X2
SYMBOL Digital\\inv 32 304 R0
SYMATTR InstName A1
SYMBOL Digital\\inv 560 304 R0
SYMATTR InstName A2
SYMBOL AND 176 400 R0
SYMATTR InstName X3
SYMBOL AND 704 400 R0
SYMATTR InstName X4
SYMBOL OR 992 416 R0
SYMATTR InstName X5
SYMBOL voltage 144 640 R0
WINDOW 123 0 0 Left 0
WINDOW 39 0 0 Left 0
SYMATTR InstName V1
SYMATTR Value 1.8
SYMBOL voltage 288 640 R0
WINDOW 123 0 0 Left 0
WINDOW 39 0 0 Left 0
SYMATTR InstName V2
SYMATTR Value 1
SYMBOL voltage 432 640 R0
WINDOW 123 0 0 Left 0
WINDOW 39 0 0 Left 0
SYMATTR InstName V3
SYMATTR Value 1
SYMBOL voltage 576 640 R0
WINDOW 123 0 0 Left 0
WINDOW 39 0 0 Left 0
SYMATTR InstName V4
SYMATTR Value 1
TEXT -516 792 Left 2 !.tran 20u
