Version 4
SHEET 1 1420 916
WIRE 96 80 48 80
WIRE 304 80 96 80
WIRE 304 112 288 112
WIRE 96 176 96 80
WIRE 128 176 96 176
WIRE 464 176 464 96
WIRE 496 176 464 176
WIRE 288 192 288 112
WIRE 784 192 656 192
WIRE 992 192 784 192
WIRE 128 208 96 208
WIRE 496 208 464 208
WIRE 992 224 976 224
WIRE 288 288 288 192
WIRE 304 288 288 288
WIRE 784 288 784 192
WIRE 816 288 784 288
WIRE 1152 288 1152 208
WIRE 1184 288 1152 288
WIRE 464 304 464 208
WIRE 976 304 976 224
WIRE 96 320 96 208
WIRE 96 320 48 320
WIRE 304 320 96 320
WIRE 816 320 784 320
WIRE 1184 320 1152 320
WIRE 976 400 976 304
WIRE 992 400 976 400
WIRE 1152 416 1152 320
WIRE 784 432 784 320
WIRE 784 432 48 432
WIRE 992 432 784 432
WIRE 976 544 976 400
WIRE 992 544 976 544
WIRE 288 576 288 288
WIRE 992 576 288 576
FLAG 48 80 A
IOPIN 48 80 In
FLAG 48 320 B
IOPIN 48 320 In
FLAG 48 432 Cin
IOPIN 48 432 In
FLAG 1152 560 Cout
IOPIN 1152 560 Out
FLAG 1344 304 S
IOPIN 1344 304 Out
FLAG 1248 256 Vdd
FLAG 1056 160 Vdd
FLAG 1056 368 Vdd
FLAG 1056 512 Vdd
FLAG 880 256 Vdd
FLAG 560 144 Vdd
FLAG 368 48 Vdd
FLAG 368 256 Vdd
FLAG 192 144 Vdd
FLAG 512 816 Vdd
FLAG 512 896 0
SYMBOL NAND2 368 96 R0
SYMATTR InstName X1
SYMBOL NAND2 192 192 R0
SYMATTR InstName X2
SYMBOL NAND2 368 304 R0
SYMATTR InstName X3
SYMBOL NAND2 560 192 R0
SYMATTR InstName X4
SYMBOL NAND2 1056 208 R0
SYMATTR InstName X5
SYMBOL NAND2 880 304 R0
SYMATTR InstName X6
SYMBOL NAND2 1056 416 R0
SYMATTR InstName X7
SYMBOL NAND2 1248 304 R0
SYMATTR InstName X8
SYMBOL NAND2 1056 560 R0
SYMATTR InstName X9
SYMBOL voltage 512 800 R0
WINDOW 123 0 0 Left 0
WINDOW 39 0 0 Left 0
SYMATTR InstName V3
SYMATTR Value 1.8
