Version 4
SHEET 1 880 680
WIRE 160 -128 64 -128
WIRE 64 -64 64 -128
WIRE 160 -64 160 -128
WIRE 160 64 160 16
WIRE 256 64 160 64
WIRE 160 80 160 64
WIRE 32 112 -16 112
WIRE 96 112 32 112
WIRE 560 128 192 128
WIRE 16 176 -16 176
WIRE 96 176 96 144
WIRE 96 176 16 176
WIRE 256 208 256 64
WIRE 256 208 160 208
WIRE 160 224 160 208
WIRE 32 256 32 112
WIRE 80 256 32 256
WIRE 560 288 240 288
WIRE 16 320 16 176
WIRE 80 320 16 320
FLAG -16 112 A
IOPIN -16 112 In
FLAG -16 176 B
IOPIN -16 176 In
FLAG 64 -64 0
FLAG 560 128 Y
IOPIN 560 128 Out
FLAG 560 288 C
IOPIN 560 288 Out
SYMBOL AND 128 144 R0
SYMATTR InstName X1
SYMBOL XOR 112 304 R0
SYMATTR InstName X2
SYMBOL voltage 160 32 R180
WINDOW 0 24 96 Left 2
WINDOW 3 24 16 Left 2
SYMATTR InstName V1
