Version 4
SHEET 1 880 680
WIRE 144 -48 144 -80
WIRE 128 0 80 0
WIRE 288 0 224 0
WIRE 416 0 288 0
WIRE 176 32 176 0
WIRE 112 208 80 208
WIRE 128 208 112 208
WIRE 288 208 288 0
WIRE 288 208 224 208
WIRE 80 240 80 208
WIRE 112 288 112 208
WIRE 176 288 176 208
WIRE 176 288 112 288
FLAG 80 240 0
FLAG 176 32 0
FLAG 80 0 A
FLAG 144 -80 B
FLAG 32 432 B
FLAG 240 432 Bbar
FLAG 112 384 Vdd
FLAG 144 160 Bbar
FLAG 416 0 Y
SYMBOL nmos4 224 -48 R90
SYMATTR InstName M1
SYMBOL nmos4 224 160 R90
SYMATTR InstName M2
SYMBOL NOT1 112 432 R0
SYMATTR InstName X1
