Version 4
SHEET 1 880 688
WIRE 224 80 224 64
WIRE 48 128 48 64
WIRE 144 128 48 128
WIRE 352 128 304 128
WIRE 16 144 16 64
WIRE 144 144 16 144
WIRE -16 160 -16 64
WIRE 144 160 -16 160
WIRE 528 160 304 160
WIRE -48 176 -48 64
WIRE 144 176 -48 176
WIRE 432 176 304 176
WIRE 432 224 432 176
WIRE -160 400 -160 336
WIRE -80 400 -80 336
WIRE 0 400 0 336
WIRE 80 400 80 336
WIRE 160 400 160 336
WIRE -160 512 -160 480
WIRE -80 512 -80 480
WIRE -80 512 -160 512
WIRE 0 512 0 480
WIRE 0 512 -80 512
WIRE 80 512 80 480
WIRE 80 512 0 512
WIRE 160 512 160 480
WIRE 160 512 80 512
WIRE 0 528 0 512
FLAG 48 64 A3
IOPIN 48 64 In
FLAG 16 64 A2
IOPIN 16 64 In
FLAG -16 64 A1
IOPIN -16 64 In
FLAG -48 64 A0
IOPIN -48 64 In
FLAG 224 64 Vdd
IOPIN 224 64 In
FLAG 352 128 Y0
IOPIN 352 128 Out
FLAG 432 224 V
IOPIN 432 224 Out
FLAG 528 160 Y1
IOPIN 528 160 Out
FLAG 0 528 0
FLAG 160 336 Vdd
IOPIN 160 336 Out
FLAG 80 336 A3
IOPIN 80 336 Out
FLAG 0 336 A2
IOPIN 0 336 Out
FLAG -80 336 A1
IOPIN -80 336 Out
FLAG -160 336 A0
IOPIN -160 336 Out
SYMBOL 4x3Priority 224 160 R0
SYMATTR InstName X1
SYMBOL voltage -160 384 R0
WINDOW 123 0 0 Left 0
WINDOW 39 0 0 Left 0
SYMATTR InstName V1
SYMATTR Value 1
SYMBOL voltage -80 384 R0
WINDOW 123 0 0 Left 0
WINDOW 39 0 0 Left 0
SYMATTR InstName V2
SYMATTR Value 0
SYMBOL voltage 0 384 R0
WINDOW 123 0 0 Left 0
WINDOW 39 0 0 Left 0
SYMATTR InstName V3
SYMATTR Value 0
SYMBOL voltage 80 384 R0
WINDOW 123 0 0 Left 0
WINDOW 39 0 0 Left 0
SYMATTR InstName V4
SYMATTR Value 0
SYMBOL voltage 160 384 R0
WINDOW 123 0 0 Left 0
WINDOW 39 0 0 Left 0
SYMATTR InstName V5
SYMATTR Value 1.8
TEXT -304 216 Left 2 !.OP
