Version 4
SHEET 1 880 760
WIRE -480 16 -480 -80
WIRE -208 16 -208 -80
WIRE 64 16 64 -80
WIRE 336 16 336 -80
WIRE -544 128 -608 128
WIRE -272 128 -352 128
WIRE 0 128 -80 128
WIRE 272 128 192 128
WIRE 544 128 464 128
WIRE -608 304 -608 128
WIRE -496 304 -496 224
WIRE -464 304 -464 224
WIRE -224 304 -224 224
WIRE -192 304 -192 224
WIRE 48 304 48 224
WIRE 80 304 80 224
WIRE 320 304 320 224
WIRE 352 304 352 224
WIRE 544 304 544 128
WIRE -944 672 -944 624
WIRE -848 672 -848 624
WIRE -848 672 -944 672
WIRE -752 672 -752 624
WIRE -752 672 -848 672
WIRE -656 672 -656 624
WIRE -656 672 -752 672
WIRE -592 672 -656 672
WIRE -560 672 -560 624
WIRE -560 672 -592 672
WIRE -464 672 -464 624
WIRE -464 672 -560 672
WIRE -368 672 -368 624
WIRE -368 672 -464 672
WIRE -272 672 -272 624
WIRE -272 672 -368 672
WIRE -128 672 -128 624
WIRE -128 672 -272 672
WIRE -592 720 -592 672
FLAG 544 304 Cin
IOPIN 544 304 In
FLAG 336 -80 S0
IOPIN 336 -80 Out
FLAG 64 -80 S1
IOPIN 64 -80 Out
FLAG -208 -80 S2
IOPIN -208 -80 Out
FLAG -480 -80 S3
IOPIN -480 -80 Out
FLAG -608 304 C3
IOPIN -608 304 Out
FLAG 320 304 A0
IOPIN 320 304 In
FLAG 48 304 A1
IOPIN 48 304 In
FLAG -224 304 A2
IOPIN -224 304 In
FLAG -496 304 A3
IOPIN -496 304 In
FLAG 352 304 B0
IOPIN 352 304 In
FLAG 80 304 B1
IOPIN 80 304 In
FLAG -192 304 B2
IOPIN -192 304 In
FLAG -464 304 B3
IOPIN -464 304 In
FLAG -592 720 0
FLAG -944 544 A0
IOPIN -944 544 Out
FLAG -848 544 B0
IOPIN -848 544 Out
FLAG -752 544 A1
IOPIN -752 544 Out
FLAG -656 544 B1
IOPIN -656 544 Out
FLAG -560 544 A2
IOPIN -560 544 Out
FLAG -464 544 B2
IOPIN -464 544 Out
FLAG -368 544 A3
IOPIN -368 544 Out
FLAG -272 544 B3
IOPIN -272 544 Out
FLAG -128 544 Cin
IOPIN -128 544 Out
SYMBOL Full_adder 368 128 R270
SYMATTR InstName X1
SYMBOL Full_adder 96 128 R270
SYMATTR InstName X2
SYMBOL Full_adder -176 128 R270
SYMATTR InstName X3
SYMBOL Full_adder -448 128 R270
SYMATTR InstName X4
SYMBOL voltage -944 528 R0
WINDOW 123 0 0 Left 0
WINDOW 39 0 0 Left 0
SYMATTR InstName V1
SYMATTR Value 1.8
SYMBOL voltage -848 528 R0
WINDOW 123 0 0 Left 0
WINDOW 39 0 0 Left 0
SYMATTR InstName V2
SYMATTR Value 0
SYMBOL voltage -752 528 R0
WINDOW 123 0 0 Left 0
WINDOW 39 0 0 Left 0
SYMATTR InstName V3
SYMATTR Value 0
SYMBOL voltage -656 528 R0
WINDOW 123 0 0 Left 0
WINDOW 39 0 0 Left 0
SYMATTR InstName V4
SYMATTR Value 1.8
SYMBOL voltage -560 528 R0
WINDOW 123 0 0 Left 0
WINDOW 39 0 0 Left 0
SYMATTR InstName V5
SYMATTR Value 1.8
SYMBOL voltage -464 528 R0
WINDOW 123 0 0 Left 0
WINDOW 39 0 0 Left 0
SYMATTR InstName V6
SYMATTR Value 0
SYMBOL voltage -368 528 R0
WINDOW 123 0 0 Left 0
WINDOW 39 0 0 Left 0
SYMATTR InstName V7
SYMATTR Value 0
SYMBOL voltage -272 528 R0
WINDOW 123 0 0 Left 0
WINDOW 39 0 0 Left 0
SYMATTR InstName V8
SYMATTR Value 1.8
SYMBOL voltage -128 528 R0
WINDOW 123 0 0 Left 0
WINDOW 39 0 0 Left 0
SYMATTR InstName V9
SYMATTR Value 0
TEXT -1016 744 Left 2 !.op
