Version 4
SHEET 1 880 740
WIRE 368 -176 -240 -176
WIRE 400 -96 -208 -96
WIRE 96 -48 -16 -48
WIRE 96 -16 96 -48
WIRE 208 -16 208 -144
WIRE 208 -16 96 -16
WIRE 288 -16 208 -16
WIRE 480 -16 288 -16
WIRE 96 32 96 -16
WIRE 288 32 288 -16
WIRE 560 32 480 32
WIRE 352 48 336 48
WIRE 432 64 416 64
WIRE -240 80 -240 -176
WIRE -240 80 -320 80
WIRE -80 80 -240 80
WIRE 112 80 96 80
WIRE 288 80 272 80
WIRE 560 80 560 32
WIRE 560 80 480 80
WIRE 480 96 480 80
WIRE 624 96 480 96
WIRE -80 112 -80 80
WIRE 48 112 -80 112
WIRE 368 112 368 -176
WIRE 416 112 416 64
WIRE 416 112 368 112
WIRE 480 112 480 96
WIRE 112 128 112 80
WIRE 112 128 96 128
WIRE 272 128 272 80
WIRE 288 128 272 128
WIRE -16 144 -16 -48
WIRE 96 160 96 128
WIRE 288 160 288 128
WIRE 496 160 480 160
WIRE 400 176 400 -96
WIRE 400 176 336 176
WIRE 0 192 -16 192
WIRE 416 192 416 112
WIRE 432 192 416 192
WIRE -208 208 -208 -96
WIRE -208 208 -320 208
WIRE 112 208 96 208
WIRE 288 208 272 208
WIRE -64 224 -128 224
WIRE 480 224 480 208
WIRE 496 224 496 160
WIRE 496 224 480 224
WIRE 0 240 0 192
WIRE 0 240 -16 240
WIRE -16 256 -16 240
WIRE 32 256 -16 256
WIRE 48 256 48 240
WIRE 48 256 32 256
WIRE 112 256 112 208
WIRE 112 256 96 256
WIRE 272 256 272 208
WIRE 288 256 272 256
WIRE -16 272 -16 256
WIRE -208 288 -208 208
WIRE -128 288 -128 224
WIRE -128 288 -208 288
WIRE 96 288 96 256
WIRE 288 288 288 256
WIRE 288 288 96 288
WIRE 96 304 96 288
WIRE 704 304 96 304
WIRE 0 320 -16 320
WIRE 32 320 32 256
WIRE 464 320 32 320
WIRE 96 336 96 304
WIRE -128 352 -128 288
WIRE -64 352 -128 352
WIRE 288 352 288 288
WIRE 0 368 0 320
WIRE 0 368 -16 368
WIRE 352 368 352 48
WIRE 352 368 336 368
WIRE 624 368 624 96
WIRE 624 368 352 368
WIRE 144 384 112 384
WIRE 288 400 256 400
WIRE -80 416 -80 112
WIRE 48 416 -80 416
WIRE 96 448 96 432
WIRE 144 448 144 384
WIRE 144 448 96 448
WIRE 256 480 256 400
WIRE 288 480 288 448
WIRE 288 480 256 480
WIRE 96 496 96 448
WIRE 288 496 288 480
WIRE 464 512 464 320
WIRE 464 512 336 512
WIRE 112 544 96 544
WIRE 288 544 240 544
WIRE -208 576 -208 288
WIRE 48 576 -208 576
WIRE 96 624 96 592
WIRE 112 624 112 544
WIRE 112 624 96 624
WIRE 240 624 240 544
WIRE 288 624 288 592
WIRE 288 624 240 624
WIRE 96 656 96 624
WIRE 192 656 96 656
WIRE 288 656 288 624
WIRE 288 656 192 656
WIRE -16 704 -16 368
WIRE 192 704 192 656
WIRE 192 704 -16 704
WIRE 480 704 480 224
WIRE 480 704 192 704
WIRE 192 720 192 704
FLAG 192 720 0
FLAG -320 80 A
IOPIN -320 80 In
FLAG -320 208 B
IOPIN -320 208 In
FLAG 208 -144 Vdd
IOPIN 208 -144 In
FLAG 704 304 Y
IOPIN 704 304 Out
SYMBOL pmos4 48 32 R0
SYMATTR InstName M1
SYMBOL pmos4 48 160 R0
SYMATTR InstName M2
SYMBOL pmos4 336 128 R180
SYMATTR InstName M3
SYMBOL pmos4 336 256 R180
SYMATTR InstName M4
SYMBOL nmos4 48 336 R0
SYMATTR InstName M5
SYMBOL nmos4 48 496 R0
SYMATTR InstName M6
SYMBOL nmos4 336 448 R180
SYMATTR InstName M7
SYMBOL nmos4 336 592 R180
SYMATTR InstName M8
SYMBOL nmos4 -64 272 R0
SYMATTR InstName M9
SYMBOL pmos4 -64 144 R0
SYMATTR InstName M10
SYMBOL pmos4 432 -16 R0
SYMATTR InstName M11
SYMBOL nmos4 432 112 R0
SYMATTR InstName M12
